Version 4
SHEET 1 9176 3892
WIRE 3152 544 3152 528
WIRE 3152 624 3152 544
WIRE 3104 672 2992 672
WIRE 3360 672 3184 672
WIRE 1408 704 1408 608
WIRE 1552 704 1552 608
WIRE 2992 736 2992 672
WIRE 3360 736 3360 672
WIRE 1408 784 1408 704
WIRE 1552 784 1552 704
WIRE 3712 800 3536 800
WIRE 3904 800 3792 800
WIRE 3600 896 3600 864
WIRE 1408 912 1408 864
WIRE 1552 912 1552 864
WIRE 3600 912 3600 896
WIRE 3360 928 3360 816
WIRE 3408 928 3360 928
WIRE 3536 928 3536 800
WIRE 3536 928 3488 928
WIRE 3568 928 3536 928
WIRE 3904 944 3904 800
WIRE 3904 944 3632 944
WIRE 4080 944 3904 944
WIRE 4256 944 4160 944
WIRE 4272 944 4256 944
WIRE 2992 960 2992 816
WIRE 3152 960 2992 960
WIRE 3536 960 3232 960
WIRE 3568 960 3536 960
WIRE 2416 992 2272 992
WIRE 2576 992 2496 992
WIRE 3600 992 3600 976
WIRE 3600 1008 3600 992
WIRE 3536 1024 3536 960
WIRE 3808 1024 3536 1024
WIRE 3536 1056 3536 1024
WIRE 3808 1056 3808 1024
WIRE 2368 1072 2368 1024
WIRE 2992 1072 2992 960
WIRE 3360 1072 3360 928
WIRE 2368 1088 2368 1072
WIRE 1808 1104 1728 1104
WIRE 1904 1104 1808 1104
WIRE 2112 1104 1968 1104
WIRE 2272 1104 2272 992
WIRE 2272 1104 2192 1104
WIRE 2336 1104 2272 1104
WIRE 2576 1120 2576 992
WIRE 2576 1120 2400 1120
WIRE 2656 1120 2576 1120
WIRE 2784 1120 2736 1120
WIRE 2928 1120 2784 1120
WIRE 2336 1136 2240 1136
WIRE 2240 1168 2240 1136
WIRE 3136 1168 2992 1168
WIRE 3360 1168 3136 1168
WIRE 2784 1200 2784 1120
WIRE 2368 1216 2368 1152
WIRE 3536 1216 3536 1136
WIRE 2368 1232 2368 1216
WIRE 3808 1312 3808 1136
WIRE 2784 1344 2784 1280
WIRE 3136 1344 3136 1168
WIRE 3696 1360 3648 1360
WIRE 3760 1360 3696 1360
WIRE 3904 1360 3840 1360
WIRE 3952 1360 3904 1360
WIRE 2944 1440 2768 1440
WIRE 2256 1456 1968 1456
WIRE 2400 1456 2336 1456
WIRE 2768 1488 2768 1440
WIRE 2096 1536 2096 1504
WIRE 2944 1552 2944 1440
WIRE 2096 1568 2096 1536
WIRE 1712 1584 1648 1584
WIRE 1824 1584 1712 1584
WIRE 1968 1584 1968 1456
WIRE 1968 1584 1904 1584
WIRE 2064 1584 1968 1584
WIRE 2400 1600 2400 1456
WIRE 2400 1600 2128 1600
WIRE 2432 1600 2400 1600
WIRE 2672 1600 2512 1600
WIRE 2880 1600 2672 1600
WIRE 2064 1616 2016 1616
WIRE 3136 1648 3136 1424
WIRE 3136 1648 2944 1648
WIRE 2016 1696 2016 1616
WIRE 3136 1696 3136 1648
WIRE 2096 1712 2096 1632
WIRE 2096 1728 2096 1712
WIRE 2672 1728 2672 1600
WIRE 3136 1872 3136 1776
WIRE 2672 1888 2672 1808
WIRE 2672 1888 2656 1888
WIRE 3136 1920 3136 1872
WIRE 2656 1936 2656 1888
WIRE 2464 1984 2448 1984
WIRE 2608 1984 2464 1984
WIRE 2832 1984 2688 1984
WIRE 2864 1984 2832 1984
FLAG 2016 1696 0
FLAG 3536 1216 0
FLAG 2784 1344 0
FLAG 2768 1488 0
FLAG 2240 1168 0
FLAG 1712 1584 CV
FLAG 4256 944 VCAoutput
FLAG 3696 1360 v-
FLAG 2096 1536 v+
FLAG 2368 1072 v+
FLAG 3600 896 v+
FLAG 2096 1712 v-
FLAG 2368 1216 v-
FLAG 3600 992 v-
FLAG 1408 912 0
FLAG 1552 912 0
FLAG 1408 704 v+
FLAG 1552 704 v-
FLAG 3136 1872 v-
FLAG 3904 1360 v+
FLAG 3152 544 v+
FLAG 2464 1984 v-
FLAG 2832 1984 v+
FLAG 3424 1120 0
FLAG 1808 1104 InputSig
SYMBOL OP07 2096 1536 R0
SYMATTR InstName U1
SYMBOL OP07 2368 1056 R0
SYMATTR InstName U2
SYMBOL OP07 3600 880 R0
SYMATTR InstName U3
SYMBOL res 1920 1568 R90
WINDOW 0 0 56 VBottom 2
WINDOW 3 32 56 VTop 2
SYMATTR InstName R1
SYMATTR Value 68k
SYMBOL res 2352 1440 R90
WINDOW 0 0 56 VBottom 2
WINDOW 3 32 56 VTop 2
SYMATTR InstName R2
SYMATTR Value 100k
SYMBOL res 2528 1584 R90
WINDOW 0 0 56 VBottom 2
WINDOW 3 32 56 VTop 2
SYMATTR InstName R3
SYMATTR Value 22k
SYMBOL res 2688 1824 R180
WINDOW 0 36 76 Left 2
WINDOW 3 36 40 Left 2
SYMATTR InstName R4
SYMATTR Value 22k
SYMBOL res 3152 1792 R180
WINDOW 0 36 76 Left 2
WINDOW 3 36 40 Left 2
SYMATTR InstName R5
SYMATTR Value 15k
SYMBOL res 3152 1440 R180
WINDOW 0 36 76 Left 2
WINDOW 3 36 40 Left 2
SYMATTR InstName R6
SYMATTR Value 15k
SYMBOL npn 2880 1552 R0
SYMATTR InstName Q1
SYMATTR Value 2N3904
SYMBOL npn 2928 1072 R0
SYMATTR InstName Q2
SYMATTR Value 2N3904
SYMBOL npn 3424 1072 M0
SYMATTR InstName Q3
SYMATTR Value 2N3904
SYMBOL res 3248 944 R90
WINDOW 0 0 56 VBottom 2
WINDOW 3 32 56 VTop 2
SYMATTR InstName R7
SYMATTR Value 10k
SYMBOL res 3008 832 R180
WINDOW 0 36 76 Left 2
WINDOW 3 36 40 Left 2
SYMATTR InstName R8
SYMATTR Value 15k
SYMBOL res 3376 832 R180
WINDOW 0 36 76 Left 2
WINDOW 3 36 40 Left 2
SYMATTR InstName R9
SYMATTR Value 15k
SYMBOL res 2768 1184 R0
SYMATTR InstName R10
SYMATTR Value 1k
SYMBOL res 2752 1104 R90
WINDOW 0 0 56 VBottom 2
WINDOW 3 32 56 VTop 2
SYMATTR InstName R11
SYMATTR Value 100k
SYMBOL res 2512 976 R90
WINDOW 0 0 56 VBottom 2
WINDOW 3 32 56 VTop 2
SYMATTR InstName R12
SYMATTR Value 100k
SYMBOL res 2208 1088 R90
WINDOW 0 0 56 VBottom 2
WINDOW 3 32 56 VTop 2
SYMATTR InstName R13
SYMATTR Value 100k
SYMBOL cap 1968 1088 R90
WINDOW 0 0 32 VBottom 2
WINDOW 3 32 32 VTop 2
SYMATTR InstName C1
SYMATTR Value 10micro
SYMBOL res 3504 912 R90
WINDOW 0 0 56 VBottom 2
WINDOW 3 32 56 VTop 2
SYMATTR InstName R14
SYMATTR Value 10k
SYMBOL res 3808 784 R90
WINDOW 0 0 56 VBottom 2
WINDOW 3 32 56 VTop 2
SYMATTR InstName R15
SYMATTR Value 100k
SYMBOL res 4176 928 R90
WINDOW 0 0 56 VBottom 2
WINDOW 3 32 56 VTop 2
SYMATTR InstName R16
SYMATTR Value 470
SYMBOL res 3552 1152 R180
WINDOW 0 36 76 Left 2
WINDOW 3 36 40 Left 2
SYMATTR InstName R17
SYMATTR Value 100k
SYMBOL res 3824 1152 R180
WINDOW 0 36 76 Left 2
WINDOW 3 36 40 Left 2
SYMATTR InstName R18
SYMATTR Value 470k
SYMBOL voltage 1552 768 R0
SYMATTR InstName V3
SYMATTR Value -20
SYMBOL voltage 1408 768 R0
WINDOW 123 0 0 Left 0
WINDOW 39 0 0 Left 0
SYMATTR InstName V4
SYMATTR Value 10
SYMBOL potentiometer 2592 2000 R270
SYMATTR InstName U6
SYMATTR Value Rtot=50K wiper=.5
SYMBOL potentiometer 3088 688 R270
SYMATTR InstName U7
SYMATTR Value Rtot=50K wiper=.5
SYMBOL potentiometer 3744 1376 R270
SYMATTR InstName U8
TEXT 3608 1864 Left 2 !.tran 5s
TEXT 3608 1904 Left 2 !.include /Users/mars/Desktop/2020 Project/Oscillators(VCO)/555 timer- square&triangle&sine/varres.sub.cir
