Version 4
SHEET 1 13416 6036
WIRE -2032 -704 -2032 -784
WIRE -1904 -704 -1904 -784
WIRE -2032 -592 -2032 -704
WIRE -1904 -592 -1904 -704
WIRE -2032 -384 -2032 -512
WIRE -1904 -384 -1904 -512
WIRE -1552 -16 -1552 -96
WIRE -976 -16 -976 -112
WIRE -432 -16 -432 -112
WIRE 4272 16 4272 0
WIRE 3088 48 3088 -48
WIRE 3232 48 3232 -48
WIRE -64 64 -96 64
WIRE 224 64 224 -112
WIRE 224 64 160 64
WIRE 3360 64 3360 -48
WIRE 3520 64 3520 -48
WIRE 4272 64 4272 16
WIRE -976 80 -976 64
WIRE -544 80 -976 80
WIRE -1552 128 -1552 64
WIRE -1360 128 -1552 128
WIRE -1120 128 -1280 128
WIRE -976 128 -976 80
WIRE -880 128 -976 128
WIRE -736 128 -816 128
WIRE -432 128 -432 64
WIRE -64 128 -432 128
WIRE 352 128 160 128
WIRE 3088 128 3088 48
WIRE 3232 128 3232 48
WIRE 3360 128 3360 64
WIRE 3520 128 3520 64
WIRE 4208 128 4080 128
WIRE 4448 128 4320 128
WIRE -64 192 -208 192
WIRE 240 192 160 192
WIRE 4080 192 4080 128
WIRE 4448 192 4448 128
WIRE -1552 208 -1552 128
WIRE -976 208 -976 128
WIRE -432 208 -432 128
WIRE -1904 256 -1968 256
WIRE -1888 256 -1904 256
WIRE -1712 256 -1808 256
WIRE -1616 256 -1712 256
WIRE -1120 256 -1120 128
WIRE -1040 256 -1120 256
WIRE -736 256 -736 128
WIRE -672 256 -736 256
WIRE -496 256 -592 256
WIRE -64 256 -128 256
WIRE 192 256 160 256
WIRE 3088 256 3088 208
WIRE 3232 256 3232 208
WIRE 3360 256 3360 208
WIRE 3520 256 3520 208
WIRE 4800 256 4624 256
WIRE 4992 256 4880 256
WIRE -1712 304 -1712 256
WIRE -736 320 -736 256
WIRE 192 336 192 256
WIRE 4688 352 4688 320
WIRE 4688 368 4688 352
WIRE 4448 384 4448 272
WIRE 4496 384 4448 384
WIRE 4624 384 4624 256
WIRE 4624 384 4576 384
WIRE 4656 384 4624 384
WIRE 4992 400 4992 256
WIRE 4992 400 4720 400
WIRE 5168 400 4992 400
WIRE 5344 400 5248 400
WIRE 5360 400 5344 400
WIRE 4080 416 4080 272
WIRE 4240 416 4080 416
WIRE 4624 416 4320 416
WIRE 4656 416 4624 416
WIRE -1712 432 -1712 368
WIRE -1552 432 -1552 304
WIRE -976 448 -976 304
WIRE -736 448 -736 384
WIRE -432 448 -432 304
WIRE 3504 448 3360 448
WIRE 3664 448 3584 448
WIRE 4688 448 4688 432
WIRE 192 464 192 400
WIRE 720 464 640 464
WIRE 4688 464 4688 448
WIRE 640 480 640 464
WIRE 4624 480 4624 416
WIRE 4896 480 4624 480
WIRE -544 496 -544 80
WIRE -128 496 -128 256
WIRE -128 496 -544 496
WIRE 4624 512 4624 480
WIRE 4896 512 4896 480
WIRE 3456 528 3456 480
WIRE 4080 528 4080 416
WIRE 4448 528 4448 384
WIRE -128 544 -128 496
WIRE 416 544 -128 544
WIRE 576 544 496 544
WIRE 720 544 720 464
WIRE 720 544 688 544
WIRE 752 544 720 544
WIRE 912 544 816 544
WIRE 3456 544 3456 528
WIRE 2912 560 2880 560
WIRE 2992 560 2912 560
WIRE 3200 560 3056 560
WIRE 3360 560 3360 448
WIRE 3360 560 3280 560
WIRE 3424 560 3360 560
WIRE 1392 576 1392 560
WIRE 3664 576 3664 448
WIRE 3664 576 3488 576
WIRE 3744 576 3664 576
WIRE 3872 576 3824 576
WIRE 4016 576 3872 576
WIRE 4544 576 4512 576
WIRE 3424 592 3328 592
WIRE 1392 608 1392 576
WIRE -208 624 -208 192
WIRE 416 624 -208 624
WIRE 576 624 496 624
WIRE 720 624 688 624
WIRE 752 624 720 624
WIRE 912 624 912 544
WIRE 912 624 816 624
WIRE 1216 624 912 624
WIRE 1360 624 1216 624
WIRE 3328 624 3328 592
WIRE 4224 624 4080 624
WIRE 4448 624 4224 624
WIRE 1568 640 1424 640
WIRE 1648 640 1568 640
WIRE 1760 640 1648 640
WIRE 1360 656 1296 656
WIRE 3872 656 3872 576
WIRE 4544 656 4544 576
WIRE 3456 672 3456 608
WIRE 4624 672 4624 592
WIRE 1392 688 1392 672
WIRE 3456 688 3456 672
WIRE 1392 704 1392 688
WIRE 624 720 624 688
WIRE 720 720 720 624
WIRE 720 720 624 720
WIRE 1216 720 1216 624
WIRE 1296 720 1296 656
WIRE 1568 720 1568 640
WIRE 1568 720 1296 720
WIRE 10256 720 10256 704
WIRE 8496 736 8416 736
WIRE 8576 736 8496 736
WIRE 8736 736 8656 736
WIRE 8928 736 8736 736
WIRE 9488 736 9424 736
WIRE 9648 736 9568 736
WIRE 9840 736 9760 736
WIRE 9968 736 9840 736
WIRE 8496 768 8496 736
WIRE 8736 768 8736 736
WIRE 8928 768 8928 736
WIRE 3872 800 3872 736
WIRE 4224 800 4224 624
WIRE 4896 816 4896 592
WIRE 9696 816 9696 800
WIRE 9840 816 9840 736
WIRE 9840 816 9696 816
WIRE 9424 832 9424 736
WIRE 9504 832 9424 832
WIRE 9968 832 9968 736
WIRE 9968 832 9568 832
WIRE 10256 832 10256 720
WIRE 240 848 240 192
WIRE 912 848 912 624
WIRE 912 848 240 848
WIRE 1216 848 1216 784
WIRE 8736 864 8736 832
WIRE 4784 880 4768 880
WIRE 4832 880 4784 880
WIRE 4992 880 4944 880
WIRE 5024 880 4992 880
WIRE 8496 880 8496 848
WIRE 8496 880 8416 880
WIRE 4032 896 3856 896
WIRE 8496 896 8496 880
WIRE 8592 896 8576 896
WIRE 8608 896 8592 896
WIRE 8640 896 8608 896
WIRE 8752 896 8720 896
WIRE 8928 896 8928 848
WIRE 8928 896 8752 896
WIRE 9264 896 8928 896
WIRE 9280 896 9264 896
WIRE 3344 912 3056 912
WIRE 3488 912 3424 912
WIRE 9424 912 9424 832
WIRE 9504 912 9424 912
WIRE 9968 912 9968 832
WIRE 9968 912 9568 912
WIRE 912 928 912 848
WIRE 8752 928 8752 896
WIRE 9264 928 9264 896
WIRE 3856 944 3856 896
WIRE 9616 976 9616 944
WIRE 3184 992 3184 960
WIRE 9616 992 9616 976
WIRE 4032 1008 4032 896
WIRE 9424 1008 9424 912
WIRE 9584 1008 9424 1008
WIRE 416 1024 416 992
WIRE 3184 1024 3184 992
WIRE 8496 1024 8496 976
WIRE 8496 1024 8400 1024
WIRE 9968 1024 9968 912
WIRE 9968 1024 9648 1024
WIRE 912 1040 912 992
WIRE 2800 1040 2736 1040
WIRE 2912 1040 2800 1040
WIRE 3056 1040 3056 912
WIRE 3056 1040 2992 1040
WIRE 3152 1040 3056 1040
WIRE 9168 1040 9008 1040
WIRE 9520 1040 9232 1040
WIRE 9584 1040 9520 1040
WIRE 3488 1056 3488 912
WIRE 3488 1056 3216 1056
WIRE 3520 1056 3488 1056
WIRE 3760 1056 3600 1056
WIRE 3968 1056 3760 1056
WIRE 3152 1072 3104 1072
WIRE 9616 1072 9616 1056
WIRE 8752 1088 8752 1008
WIRE 9008 1088 9008 1040
WIRE 9264 1088 9264 1008
WIRE 1040 1104 976 1104
WIRE 4224 1104 4224 880
WIRE 4224 1104 4032 1104
WIRE 9616 1104 9616 1072
WIRE 416 1120 416 1024
WIRE 9424 1120 9424 1008
WIRE 9520 1120 9520 1040
WIRE 3104 1152 3104 1072
WIRE 4224 1152 4224 1104
WIRE 7568 1152 7552 1152
WIRE 7760 1152 7568 1152
WIRE 8320 1152 8224 1152
WIRE 8496 1152 8400 1152
WIRE 3184 1168 3184 1088
WIRE 912 1184 912 1152
WIRE 1040 1184 1040 1104
WIRE 1040 1184 912 1184
WIRE 3184 1184 3184 1168
WIRE 3760 1184 3760 1056
WIRE 416 1216 416 1200
WIRE 7760 1216 7760 1152
WIRE 8880 1216 8880 1088
WIRE 9008 1216 9008 1088
WIRE 9136 1216 9136 1088
WIRE 912 1232 912 1184
WIRE 8384 1232 8384 1200
WIRE 704 1248 704 1200
WIRE 704 1264 704 1248
WIRE 8384 1264 8384 1232
WIRE 9424 1264 9424 1200
WIRE 9520 1264 9520 1200
WIRE 672 1280 480 1280
WIRE 7968 1280 7824 1280
WIRE 8096 1280 8032 1280
WIRE 8224 1280 8224 1152
WIRE 8224 1280 8176 1280
WIRE 8352 1280 8224 1280
WIRE 832 1296 736 1296
WIRE 8496 1296 8496 1152
WIRE 8496 1296 8416 1296
WIRE 8608 1296 8608 896
WIRE 8608 1296 8496 1296
WIRE 8656 1296 8608 1296
WIRE 672 1312 608 1312
WIRE 8352 1312 8304 1312
WIRE 4224 1328 4224 1232
WIRE 704 1344 704 1328
WIRE 3760 1344 3760 1264
WIRE 8304 1344 8304 1312
WIRE 8384 1344 8384 1328
WIRE 4224 1376 4224 1328
WIRE 7760 1376 7760 1328
WIRE 8384 1376 8384 1344
WIRE 704 1408 704 1344
WIRE 3616 1408 3600 1408
WIRE 3696 1408 3616 1408
WIRE 3856 1408 3808 1408
WIRE 3904 1408 3856 1408
WIRE 8784 1408 8672 1408
WIRE 8880 1408 8880 1280
WIRE 8880 1408 8864 1408
WIRE 9136 1408 9136 1280
WIRE 9136 1408 8880 1408
WIRE 9232 1408 9136 1408
WIRE 9456 1408 9312 1408
WIRE 9968 1408 9968 1024
WIRE 9968 1408 9456 1408
WIRE 608 1456 608 1312
WIRE 832 1456 832 1296
WIRE 832 1456 608 1456
WIRE 912 1456 912 1312
WIRE 912 1456 832 1456
WIRE 7952 1488 7920 1488
WIRE 8064 1488 7952 1488
WIRE 352 1504 352 128
WIRE 416 1504 416 1328
WIRE 416 1504 352 1504
WIRE 8880 1504 8656 1504
WIRE 9008 1504 9008 1280
WIRE 9008 1504 8960 1504
WIRE 8064 1520 8064 1488
WIRE 9008 1552 9008 1504
WIRE 8240 1584 8128 1584
WIRE 8352 1584 8320 1584
WIRE 9744 1616 9712 1616
WIRE 9904 1616 9824 1616
WIRE 8064 1648 8064 1632
WIRE 8752 1648 8752 1088
WIRE 8832 1648 8752 1648
WIRE 9264 1648 9264 1088
WIRE 9264 1648 9184 1648
WIRE 9008 1664 9008 1632
WIRE 8832 1696 8832 1648
WIRE 9184 1696 9184 1648
WIRE 9840 1696 9840 1664
WIRE 9840 1728 9840 1696
WIRE 8352 1744 8352 1584
WIRE 8576 1744 8352 1744
WIRE 8768 1744 8576 1744
WIRE 9456 1744 9456 1408
WIRE 9504 1744 9456 1744
WIRE 9584 1744 9568 1744
WIRE 9712 1744 9712 1616
WIRE 9712 1744 9664 1744
WIRE 9808 1744 9712 1744
WIRE 9904 1760 9904 1616
WIRE 9904 1760 9872 1760
WIRE 9936 1760 9904 1760
WIRE 10096 1760 10016 1760
WIRE 10240 1760 10096 1760
WIRE 8576 1776 8576 1744
WIRE 9808 1776 9760 1776
WIRE 8832 1808 8832 1792
WIRE 8944 1808 8832 1808
WIRE 9184 1808 9184 1792
WIRE 9184 1808 8944 1808
WIRE 8944 1824 8944 1808
WIRE 9760 1824 9760 1776
WIRE 9840 1840 9840 1792
WIRE 9840 1856 9840 1840
WIRE 7968 1888 7920 1888
WIRE 8064 1888 8048 1888
WIRE 8576 1904 8576 1856
WIRE 8688 1904 8576 1904
WIRE 8064 1920 8064 1888
WIRE 8944 1920 8944 1904
WIRE 9024 1920 8944 1920
WIRE 8944 1936 8944 1920
WIRE 9024 1936 9024 1920
WIRE 8576 1952 8576 1904
WIRE 8240 1984 8128 1984
WIRE 8352 1984 8352 1744
WIRE 8352 1984 8320 1984
WIRE 8688 2016 8688 1904
WIRE 8688 2016 8640 2016
WIRE 9024 2032 9024 2000
WIRE 8064 2048 8064 2032
WIRE 8944 2064 8944 2016
WIRE 8576 2112 8576 2064
WIRE 4160 2320 4160 2304
WIRE 4160 2368 4160 2320
WIRE -3744 2384 -4192 2384
WIRE -1504 2384 -1504 2304
WIRE -928 2384 -928 2288
WIRE -384 2384 -384 2288
WIRE -3744 2416 -3744 2384
WIRE 4096 2432 3968 2432
WIRE 4336 2432 4208 2432
WIRE -3792 2464 -3824 2464
WIRE -16 2464 -48 2464
WIRE 272 2464 272 2288
WIRE 272 2464 208 2464
WIRE -928 2480 -928 2464
WIRE -496 2480 -928 2480
WIRE 3968 2496 3968 2432
WIRE 4336 2496 4336 2432
WIRE -4048 2528 -4128 2528
WIRE -1504 2528 -1504 2464
WIRE -1312 2528 -1504 2528
WIRE -1072 2528 -1232 2528
WIRE -928 2528 -928 2480
WIRE -832 2528 -928 2528
WIRE -688 2528 -768 2528
WIRE -384 2528 -384 2464
WIRE -16 2528 -384 2528
WIRE 400 2528 208 2528
WIRE 4688 2560 4512 2560
WIRE 4880 2560 4768 2560
WIRE -5008 2576 -5088 2576
WIRE -4864 2576 -4928 2576
WIRE -4832 2576 -4864 2576
WIRE -3552 2576 -3552 2496
WIRE -4352 2592 -4368 2592
WIRE -4336 2592 -4352 2592
WIRE -4320 2592 -4336 2592
WIRE -4192 2592 -4192 2384
WIRE -4192 2592 -4240 2592
WIRE -4048 2592 -4192 2592
WIRE -3744 2592 -3744 2496
WIRE -3744 2592 -3824 2592
WIRE -16 2592 -160 2592
WIRE 288 2592 208 2592
WIRE -3552 2608 -3552 2576
WIRE -1504 2608 -1504 2528
WIRE -928 2608 -928 2528
WIRE -384 2608 -384 2528
WIRE -4336 2640 -4336 2592
WIRE -4192 2640 -4192 2592
WIRE -4080 2656 -4096 2656
WIRE -4048 2656 -4080 2656
WIRE -3792 2656 -3824 2656
WIRE -3616 2656 -3792 2656
WIRE -1856 2656 -1920 2656
WIRE -1840 2656 -1856 2656
WIRE -1664 2656 -1760 2656
WIRE -1568 2656 -1664 2656
WIRE -1072 2656 -1072 2528
WIRE -992 2656 -1072 2656
WIRE -688 2656 -688 2528
WIRE -624 2656 -688 2656
WIRE -448 2656 -544 2656
WIRE -16 2656 -80 2656
WIRE 240 2656 208 2656
WIRE 4576 2656 4576 2624
WIRE -4944 2672 -4944 2624
WIRE 4576 2672 4576 2656
WIRE -4944 2688 -4944 2672
WIRE -3792 2688 -3792 2656
WIRE 4336 2688 4336 2576
WIRE 4384 2688 4336 2688
WIRE 4512 2688 4512 2560
WIRE 4512 2688 4464 2688
WIRE 4544 2688 4512 2688
WIRE 8864 2688 8672 2688
WIRE 9088 2688 8928 2688
WIRE -1664 2704 -1664 2656
WIRE 4880 2704 4880 2560
WIRE 4880 2704 4608 2704
WIRE 5056 2704 4880 2704
WIRE 5232 2704 5136 2704
WIRE 5248 2704 5232 2704
WIRE -688 2720 -688 2656
WIRE 3968 2720 3968 2576
WIRE 4128 2720 3968 2720
WIRE 4512 2720 4208 2720
WIRE 4544 2720 4512 2720
WIRE 6528 2720 6304 2720
WIRE 6688 2720 6608 2720
WIRE -4336 2736 -4336 2704
WIRE -4128 2736 -4128 2528
WIRE -3744 2736 -3744 2592
WIRE -3744 2736 -4128 2736
WIRE 240 2736 240 2656
WIRE -3552 2752 -3552 2720
WIRE 3392 2752 3248 2752
WIRE 3552 2752 3472 2752
WIRE 4576 2752 4576 2736
WIRE -4128 2768 -4128 2736
WIRE -3792 2768 -3792 2752
WIRE 4576 2768 4576 2752
WIRE 4512 2784 4512 2720
WIRE 4784 2784 4512 2784
WIRE -4944 2816 -4944 2768
WIRE 4512 2816 4512 2784
WIRE 4784 2816 4784 2784
WIRE 5792 2816 5792 2784
WIRE 5904 2816 5904 2784
WIRE 6528 2816 6304 2816
WIRE 6688 2816 6688 2720
WIRE 6688 2816 6608 2816
WIRE 8672 2816 8672 2688
WIRE 8848 2816 8672 2816
WIRE 9088 2816 9088 2688
WIRE 9088 2816 8928 2816
WIRE -1664 2832 -1664 2768
WIRE -1504 2832 -1504 2704
WIRE 3344 2832 3344 2784
WIRE 3968 2832 3968 2720
WIRE 4336 2832 4336 2688
WIRE -4128 2848 -4128 2832
WIRE -928 2848 -928 2704
WIRE -688 2848 -688 2784
WIRE -384 2848 -384 2704
WIRE 3344 2848 3344 2832
WIRE 240 2864 240 2800
WIRE 768 2864 688 2864
WIRE 2800 2864 2768 2864
WIRE 2880 2864 2800 2864
WIRE 3088 2864 2944 2864
WIRE 3248 2864 3248 2752
WIRE 3248 2864 3168 2864
WIRE 3312 2864 3248 2864
WIRE 8944 2864 8736 2864
WIRE 688 2880 688 2864
WIRE 3552 2880 3552 2752
WIRE 3552 2880 3376 2880
WIRE 3632 2880 3552 2880
WIRE 3760 2880 3712 2880
WIRE 3904 2880 3760 2880
WIRE 4432 2880 4400 2880
WIRE 5792 2880 5792 2816
WIRE 5904 2880 5904 2816
WIRE 8944 2880 8944 2864
WIRE -496 2896 -496 2480
WIRE -80 2896 -80 2656
WIRE -80 2896 -496 2896
WIRE 3312 2896 3216 2896
WIRE 3216 2928 3216 2896
WIRE 4112 2928 3968 2928
WIRE 4336 2928 4112 2928
WIRE 6528 2928 6304 2928
WIRE 6688 2928 6688 2816
WIRE 6688 2928 6608 2928
WIRE -80 2944 -80 2896
WIRE 464 2944 -80 2944
WIRE 624 2944 544 2944
WIRE 768 2944 768 2864
WIRE 768 2944 736 2944
WIRE 800 2944 768 2944
WIRE 960 2944 864 2944
WIRE 3760 2960 3760 2880
WIRE 4432 2960 4432 2880
WIRE 8736 2960 8736 2864
WIRE 1440 2976 1440 2960
WIRE 3344 2976 3344 2912
WIRE 4512 2976 4512 2896
WIRE 8208 2976 8192 2976
WIRE 8448 2976 8208 2976
WIRE 8672 2976 8672 2816
WIRE 8672 2976 8528 2976
WIRE 8704 2976 8672 2976
WIRE 8944 2976 8944 2960
WIRE 3344 2992 3344 2976
WIRE 9088 2992 9088 2816
WIRE 9088 2992 8768 2992
WIRE 9184 2992 9088 2992
WIRE 9424 2992 9248 2992
WIRE 9440 2992 9424 2992
WIRE 1440 3008 1440 2976
WIRE 8704 3008 8656 3008
WIRE -160 3024 -160 2592
WIRE 464 3024 -160 3024
WIRE 624 3024 544 3024
WIRE 768 3024 736 3024
WIRE 800 3024 768 3024
WIRE 960 3024 960 2944
WIRE 960 3024 864 3024
WIRE 1264 3024 960 3024
WIRE 1408 3024 1264 3024
WIRE 1616 3040 1472 3040
WIRE 1696 3040 1616 3040
WIRE 1808 3040 1696 3040
WIRE -3744 3056 -4192 3056
WIRE 1408 3056 1344 3056
WIRE 6528 3056 6304 3056
WIRE 6688 3056 6688 2928
WIRE 6688 3056 6608 3056
WIRE 9440 3056 9440 2992
WIRE 8736 3072 8736 3024
WIRE -3744 3088 -3744 3056
WIRE 1440 3088 1440 3072
WIRE 8656 3088 8656 3008
WIRE 1440 3104 1440 3088
WIRE 3760 3104 3760 3040
WIRE 4112 3104 4112 2928
WIRE 672 3120 672 3088
WIRE 768 3120 768 3024
WIRE 768 3120 672 3120
WIRE 1264 3120 1264 3024
WIRE 1344 3120 1344 3056
WIRE 1616 3120 1616 3040
WIRE 1616 3120 1344 3120
WIRE 4784 3120 4784 2896
WIRE -3792 3136 -3824 3136
WIRE 6416 3168 6304 3168
WIRE 6528 3168 6416 3168
WIRE 6688 3168 6688 3056
WIRE 6688 3168 6608 3168
WIRE -5024 3184 -5104 3184
WIRE -4880 3184 -4944 3184
WIRE -4848 3184 -4880 3184
WIRE 4672 3184 4656 3184
WIRE 4720 3184 4672 3184
WIRE 4880 3184 4832 3184
WIRE 4912 3184 4880 3184
WIRE 8736 3184 8736 3152
WIRE 9440 3184 9440 3136
WIRE -4048 3200 -4128 3200
WIRE 3920 3200 3744 3200
WIRE -3536 3216 -3536 3152
WIRE 3232 3216 2944 3216
WIRE 3376 3216 3312 3216
WIRE 6832 3232 6720 3232
WIRE 7040 3232 6912 3232
WIRE 288 3248 288 2592
WIRE 960 3248 960 3024
WIRE 960 3248 288 3248
WIRE 1264 3248 1264 3184
WIRE 3744 3248 3744 3200
WIRE -4960 3264 -4960 3232
WIRE -4336 3264 -4352 3264
WIRE -4320 3264 -4336 3264
WIRE -4304 3264 -4320 3264
WIRE -4192 3264 -4192 3056
WIRE -4192 3264 -4224 3264
WIRE -4048 3264 -4192 3264
WIRE -3744 3264 -3744 3168
WIRE -3744 3264 -3824 3264
WIRE 6416 3264 6304 3264
WIRE 6528 3264 6416 3264
WIRE 6688 3264 6688 3168
WIRE 6688 3264 6608 3264
WIRE -3536 3280 -3536 3216
WIRE -4960 3296 -4960 3264
WIRE 3072 3296 3072 3264
WIRE -4320 3312 -4320 3264
WIRE -4192 3312 -4192 3264
WIRE 3920 3312 3920 3200
WIRE -4080 3328 -4096 3328
WIRE -4048 3328 -4080 3328
WIRE -3792 3328 -3824 3328
WIRE -3600 3328 -3792 3328
WIRE 960 3328 960 3248
WIRE 3072 3328 3072 3296
WIRE 6784 3328 6784 3296
WIRE 2688 3344 2624 3344
WIRE 2800 3344 2688 3344
WIRE 2944 3344 2944 3216
WIRE 2944 3344 2880 3344
WIRE 3040 3344 2944 3344
WIRE 6784 3344 6784 3328
WIRE -3792 3360 -3792 3328
WIRE 3376 3360 3376 3216
WIRE 3376 3360 3104 3360
WIRE 3408 3360 3376 3360
WIRE 3648 3360 3488 3360
WIRE 3856 3360 3648 3360
WIRE 6416 3360 6304 3360
WIRE 6544 3360 6416 3360
WIRE 6688 3360 6688 3264
WIRE 6688 3360 6624 3360
WIRE 6720 3360 6720 3232
WIRE 6720 3360 6688 3360
WIRE 6752 3360 6720 3360
WIRE 3040 3376 2992 3376
WIRE 7040 3376 7040 3232
WIRE 7040 3376 6816 3376
WIRE 7072 3376 7040 3376
WIRE 7104 3376 7072 3376
WIRE 6752 3392 6720 3392
WIRE -4320 3408 -4320 3376
WIRE -4128 3408 -4128 3200
WIRE -3744 3408 -3744 3264
WIRE -3744 3408 -4128 3408
WIRE 4112 3408 4112 3184
WIRE 4112 3408 3920 3408
WIRE -4960 3424 -4960 3376
WIRE 464 3424 464 3392
WIRE 6720 3424 6720 3392
WIRE 6784 3424 6784 3408
WIRE -4128 3440 -4128 3408
WIRE -3792 3440 -3792 3424
WIRE -3536 3440 -3536 3392
WIRE 960 3440 960 3392
WIRE 2992 3456 2992 3376
WIRE 4112 3456 4112 3408
WIRE 6784 3456 6784 3424
WIRE 3072 3472 3072 3392
WIRE 3072 3488 3072 3472
WIRE 3648 3488 3648 3360
WIRE 1088 3504 1024 3504
WIRE -4128 3520 -4128 3504
WIRE 464 3520 464 3424
WIRE 960 3584 960 3552
WIRE 1088 3584 1088 3504
WIRE 1088 3584 960 3584
WIRE 464 3616 464 3600
WIRE 960 3632 960 3584
WIRE 4112 3632 4112 3536
WIRE 752 3648 752 3600
WIRE 3648 3648 3648 3568
WIRE 752 3664 752 3648
WIRE -3744 3680 -4192 3680
WIRE 720 3680 528 3680
WIRE 4112 3680 4112 3632
WIRE 880 3696 784 3696
WIRE -3744 3712 -3744 3680
WIRE 720 3712 656 3712
WIRE 3504 3712 3488 3712
WIRE 3584 3712 3504 3712
WIRE 3744 3712 3696 3712
WIRE 3792 3712 3744 3712
WIRE 752 3744 752 3728
WIRE -3792 3760 -3824 3760
WIRE 752 3808 752 3744
WIRE -4048 3824 -4128 3824
WIRE -5024 3840 -5104 3840
WIRE -4880 3840 -4944 3840
WIRE -4848 3840 -4880 3840
WIRE 656 3856 656 3712
WIRE 880 3856 880 3696
WIRE 880 3856 656 3856
WIRE 960 3856 960 3712
WIRE 960 3856 880 3856
WIRE 8960 3856 8896 3856
WIRE 9072 3856 9040 3856
WIRE 9136 3856 9072 3856
WIRE 9296 3856 9216 3856
WIRE -3520 3872 -3520 3792
WIRE -4352 3888 -4368 3888
WIRE -4336 3888 -4352 3888
WIRE -4320 3888 -4336 3888
WIRE -4192 3888 -4192 3680
WIRE -4192 3888 -4240 3888
WIRE -4048 3888 -4192 3888
WIRE -3744 3888 -3744 3792
WIRE -3744 3888 -3824 3888
WIRE -3520 3904 -3520 3872
WIRE 400 3904 400 2528
WIRE 464 3904 464 3728
WIRE 464 3904 400 3904
WIRE 9328 3904 9168 3904
WIRE 9600 3904 9328 3904
WIRE -4960 3920 -4960 3888
WIRE -4336 3936 -4336 3888
WIRE -4192 3936 -4192 3888
WIRE 9168 3936 9168 3904
WIRE -4960 3952 -4960 3920
WIRE -4080 3952 -4096 3952
WIRE -4048 3952 -4080 3952
WIRE -3792 3952 -3824 3952
WIRE -3584 3952 -3792 3952
WIRE 9072 3952 9072 3856
WIRE 9136 3952 9072 3952
WIRE 9296 3968 9296 3856
WIRE 9296 3968 9200 3968
WIRE 9408 3968 9296 3968
WIRE 9648 3968 9488 3968
WIRE -3792 3984 -3792 3952
WIRE 7968 3984 7904 3984
WIRE 8048 3984 7968 3984
WIRE 8256 3984 8128 3984
WIRE 8336 3984 8256 3984
WIRE 8352 3984 8336 3984
WIRE 8464 3984 8416 3984
WIRE 8512 3984 8464 3984
WIRE 8640 3984 8576 3984
WIRE 8672 3984 8640 3984
WIRE 8768 3984 8736 3984
WIRE 8816 3984 8768 3984
WIRE 9056 3984 8880 3984
WIRE 9136 3984 9056 3984
WIRE 8768 4016 8768 3984
WIRE -4336 4032 -4336 4000
WIRE -4128 4032 -4128 3824
WIRE -3744 4032 -3744 3888
WIRE -3744 4032 -4128 4032
WIRE 8464 4032 8464 3984
WIRE 8256 4048 8256 3984
WIRE 9168 4048 9168 4000
WIRE 9344 4048 9168 4048
WIRE -4128 4064 -4128 4032
WIRE -3792 4064 -3792 4048
WIRE -3520 4064 -3520 4016
WIRE -4960 4080 -4960 4032
WIRE 9600 4080 9600 3904
WIRE 8768 4112 8768 4096
WIRE -4128 4144 -4128 4128
WIRE 8336 4192 8336 3984
WIRE 8352 4192 8336 4192
WIRE 8480 4192 8432 4192
WIRE 8544 4192 8480 4192
WIRE 8640 4192 8640 3984
WIRE 8640 4192 8624 4192
WIRE 8704 4192 8640 4192
WIRE 8848 4192 8784 4192
WIRE 8896 4192 8848 4192
WIRE 9056 4192 9056 3984
WIRE 9056 4192 8976 4192
WIRE 8256 4208 8256 4112
WIRE 8848 4224 8848 4192
WIRE 9600 4224 9600 4160
WIRE 9632 4224 9600 4224
WIRE 8480 4240 8480 4192
WIRE 9600 4288 9600 4224
WIRE 8848 4304 8848 4288
WIRE 8256 4368 8256 4288
WIRE 8816 4368 8256 4368
WIRE 9104 4368 8896 4368
WIRE 9168 4368 9104 4368
WIRE 9296 4368 9248 4368
WIRE 8256 4416 8256 4368
WIRE 9328 4416 9328 3904
WIRE 9328 4416 9184 4416
WIRE 9184 4432 9184 4416
WIRE 9104 4448 9104 4368
WIRE 9152 4448 9104 4448
WIRE 9296 4464 9296 4368
WIRE 9296 4464 9216 4464
WIRE 9424 4464 9296 4464
WIRE 9664 4464 9504 4464
WIRE 9056 4480 9056 4192
WIRE 9152 4480 9056 4480
WIRE -4064 4512 -4192 4512
WIRE -3856 4512 -3984 4512
WIRE -1472 4512 -1472 4432
WIRE -896 4512 -896 4416
WIRE -352 4512 -352 4416
WIRE 8256 4512 8256 4496
WIRE 4144 4544 4144 4528
WIRE 9184 4544 9184 4496
WIRE 9344 4544 9344 4048
WIRE 9344 4544 9184 4544
WIRE 9600 4544 9600 4368
WIRE 9600 4544 9344 4544
WIRE -3408 4592 -4000 4592
WIRE 16 4592 -16 4592
WIRE 304 4592 304 4416
WIRE 304 4592 240 4592
WIRE 4144 4592 4144 4544
WIRE -3408 4608 -3408 4592
WIRE -896 4608 -896 4592
WIRE -464 4608 -896 4608
WIRE -4000 4640 -4000 4592
WIRE -4192 4656 -4192 4512
WIRE -4192 4656 -4304 4656
WIRE -4032 4656 -4192 4656
WIRE -1472 4656 -1472 4592
WIRE -1280 4656 -1472 4656
WIRE -1040 4656 -1200 4656
WIRE -896 4656 -896 4608
WIRE -800 4656 -896 4656
WIRE -656 4656 -736 4656
WIRE -352 4656 -352 4592
WIRE 16 4656 -352 4656
WIRE 432 4656 240 4656
WIRE 4080 4656 3952 4656
WIRE 4320 4656 4192 4656
WIRE -3888 4672 -3968 4672
WIRE -3856 4672 -3856 4512
WIRE -3856 4672 -3888 4672
WIRE -3808 4672 -3856 4672
WIRE -4304 4688 -4304 4656
WIRE -4032 4688 -4144 4688
WIRE -3408 4720 -3408 4688
WIRE -3392 4720 -3408 4720
WIRE 16 4720 -128 4720
WIRE 320 4720 240 4720
WIRE 3952 4720 3952 4656
WIRE 4320 4720 4320 4656
WIRE -1472 4736 -1472 4656
WIRE -896 4736 -896 4656
WIRE -352 4736 -352 4656
WIRE -3408 4752 -3408 4720
WIRE -4304 4784 -4304 4768
WIRE -1824 4784 -1888 4784
WIRE -1808 4784 -1824 4784
WIRE -1632 4784 -1728 4784
WIRE -1536 4784 -1632 4784
WIRE -1040 4784 -1040 4656
WIRE -960 4784 -1040 4784
WIRE -656 4784 -656 4656
WIRE -592 4784 -656 4784
WIRE -416 4784 -512 4784
WIRE 16 4784 -48 4784
WIRE 272 4784 240 4784
WIRE 4672 4784 4496 4784
WIRE 4864 4784 4752 4784
WIRE -1632 4832 -1632 4784
WIRE -656 4848 -656 4784
WIRE -4000 4864 -4000 4704
WIRE -3408 4864 -3408 4832
WIRE -3408 4864 -4000 4864
WIRE 272 4864 272 4784
WIRE 4560 4880 4560 4848
WIRE 4560 4896 4560 4880
WIRE 4320 4912 4320 4800
WIRE 4368 4912 4320 4912
WIRE 4496 4912 4496 4784
WIRE 4496 4912 4448 4912
WIRE 4528 4912 4496 4912
WIRE -4256 4928 -4368 4928
WIRE -4144 4928 -4144 4688
WIRE -4144 4928 -4256 4928
WIRE -4080 4928 -4144 4928
WIRE -3968 4928 -4000 4928
WIRE -3856 4928 -3856 4672
WIRE -3856 4928 -3904 4928
WIRE 4864 4928 4864 4784
WIRE 4864 4928 4592 4928
WIRE 5040 4928 4864 4928
WIRE 5216 4928 5120 4928
WIRE 5232 4928 5216 4928
WIRE -4368 4944 -4368 4928
WIRE -4256 4944 -4256 4928
WIRE 3952 4944 3952 4800
WIRE 4112 4944 3952 4944
WIRE 4496 4944 4192 4944
WIRE 4528 4944 4496 4944
WIRE -1632 4960 -1632 4896
WIRE -1472 4960 -1472 4832
WIRE -896 4976 -896 4832
WIRE -656 4976 -656 4912
WIRE -352 4976 -352 4832
WIRE 3376 4976 3232 4976
WIRE 3536 4976 3456 4976
WIRE 4560 4976 4560 4960
WIRE 272 4992 272 4928
WIRE 800 4992 720 4992
WIRE 4560 4992 4560 4976
WIRE 720 5008 720 4992
WIRE 4496 5008 4496 4944
WIRE 4768 5008 4496 5008
WIRE -464 5024 -464 4608
WIRE -48 5024 -48 4784
WIRE -48 5024 -464 5024
WIRE -4368 5040 -4368 5008
WIRE -4256 5040 -4256 5024
WIRE 4496 5040 4496 5008
WIRE 4768 5040 4768 5008
WIRE 3328 5056 3328 5008
WIRE 3952 5056 3952 4944
WIRE 4320 5056 4320 4912
WIRE -48 5072 -48 5024
WIRE 496 5072 -48 5072
WIRE 656 5072 576 5072
WIRE 800 5072 800 4992
WIRE 800 5072 768 5072
WIRE 832 5072 800 5072
WIRE 992 5072 896 5072
WIRE 3328 5072 3328 5056
WIRE 2784 5088 2752 5088
WIRE 2864 5088 2784 5088
WIRE 3072 5088 2928 5088
WIRE 3232 5088 3232 4976
WIRE 3232 5088 3152 5088
WIRE 3296 5088 3232 5088
WIRE 1472 5104 1472 5088
WIRE 3536 5104 3536 4976
WIRE 3536 5104 3360 5104
WIRE 3616 5104 3536 5104
WIRE 3744 5104 3696 5104
WIRE 3888 5104 3744 5104
WIRE 4416 5104 4384 5104
WIRE 3296 5120 3200 5120
WIRE 1472 5136 1472 5104
WIRE -128 5152 -128 4720
WIRE 496 5152 -128 5152
WIRE 656 5152 576 5152
WIRE 800 5152 768 5152
WIRE 832 5152 800 5152
WIRE 992 5152 992 5072
WIRE 992 5152 896 5152
WIRE 1296 5152 992 5152
WIRE 1440 5152 1296 5152
WIRE 3200 5152 3200 5120
WIRE 4096 5152 3952 5152
WIRE 4320 5152 4096 5152
WIRE 1648 5168 1504 5168
WIRE 1728 5168 1648 5168
WIRE 1840 5168 1728 5168
WIRE 1440 5184 1376 5184
WIRE 3744 5184 3744 5104
WIRE 4416 5184 4416 5104
WIRE 3328 5200 3328 5136
WIRE 4496 5200 4496 5120
WIRE 1472 5216 1472 5200
WIRE 3328 5216 3328 5200
WIRE 1472 5232 1472 5216
WIRE 704 5248 704 5216
WIRE 800 5248 800 5152
WIRE 800 5248 704 5248
WIRE 1296 5248 1296 5152
WIRE 1376 5248 1376 5184
WIRE 1648 5248 1648 5168
WIRE 1648 5248 1376 5248
WIRE 3744 5328 3744 5264
WIRE 4096 5328 4096 5152
WIRE 4768 5344 4768 5120
WIRE 320 5376 320 4720
WIRE 992 5376 992 5152
WIRE 992 5376 320 5376
WIRE 1296 5376 1296 5312
WIRE 4656 5408 4640 5408
WIRE 4704 5408 4656 5408
WIRE 4864 5408 4816 5408
WIRE 4896 5408 4864 5408
WIRE 3904 5424 3728 5424
WIRE 3216 5440 2928 5440
WIRE 3360 5440 3296 5440
WIRE 992 5456 992 5376
WIRE 3728 5472 3728 5424
WIRE 3056 5520 3056 5488
WIRE 3904 5536 3904 5424
WIRE 496 5552 496 5520
WIRE 3056 5552 3056 5520
WIRE 992 5568 992 5520
WIRE 2736 5568 2672 5568
WIRE 2784 5568 2736 5568
WIRE 2928 5568 2928 5440
WIRE 2928 5568 2864 5568
WIRE 3024 5568 2928 5568
WIRE 3360 5584 3360 5440
WIRE 3360 5584 3088 5584
WIRE 3392 5584 3360 5584
WIRE 3632 5584 3472 5584
WIRE 3840 5584 3632 5584
WIRE 3024 5600 2976 5600
WIRE 1120 5632 1056 5632
WIRE 4096 5632 4096 5408
WIRE 4096 5632 3904 5632
WIRE 496 5648 496 5552
WIRE 2976 5680 2976 5600
WIRE 4096 5680 4096 5632
WIRE 3056 5696 3056 5616
WIRE 992 5712 992 5680
WIRE 1120 5712 1120 5632
WIRE 1120 5712 992 5712
WIRE 3056 5712 3056 5696
WIRE 3632 5712 3632 5584
WIRE 496 5744 496 5728
WIRE 992 5760 992 5712
WIRE 784 5776 784 5728
WIRE 784 5792 784 5776
WIRE 752 5808 560 5808
WIRE 912 5824 816 5824
WIRE 752 5840 688 5840
WIRE 4096 5856 4096 5760
WIRE 784 5872 784 5856
WIRE 3632 5872 3632 5792
WIRE 4096 5904 4096 5856
WIRE 784 5936 784 5872
WIRE 3488 5936 3472 5936
WIRE 3568 5936 3488 5936
WIRE 3728 5936 3680 5936
WIRE 3776 5936 3728 5936
WIRE 688 5984 688 5840
WIRE 912 5984 912 5824
WIRE 912 5984 688 5984
WIRE 992 5984 992 5840
WIRE 992 5984 912 5984
WIRE 432 6032 432 4656
WIRE 496 6032 496 5856
WIRE 496 6032 432 6032
FLAG -2032 -384 0
FLAG -2032 -704 v+
FLAG -1904 -384 0
FLAG -1904 -704 v-
FLAG 3104 1152 0
FLAG 4624 672 0
FLAG 3872 800 0
FLAG 3856 944 0
FLAG 3328 624 0
FLAG 2800 1040 egoutD
FLAG 5344 400 VCAoutputD
FLAG 3184 992 op+
FLAG 3456 528 op+
FLAG 4688 352 op+
FLAG 3184 1168 op-
FLAG 3456 672 op-
FLAG 4688 448 op-
FLAG 3088 256 0
FLAG 3232 256 0
FLAG 3088 48 v++
FLAG 3232 48 v--
FLAG 4224 1328 v--
FLAG 4544 656 0
FLAG 4784 880 v--
FLAG 4992 880 v++
FLAG 3856 1408 v++
FLAG 4272 16 v++
FLAG 3616 1408 v--
FLAG 2912 560 SquareD
FLAG -4048 2464 0
FLAG -4128 2848 0
FLAG -4080 2656 5VD
FLAG -3792 2768 0
FLAG -3792 2464 5VD
FLAG -4336 2736 0
FLAG -4192 2640 SquareD
FLAG -4352 2592 TriangleD
FLAG -4048 3136 0
FLAG -4128 3520 0
FLAG -4080 3328 5VE
FLAG -3792 3440 0
FLAG -3792 3136 5VE
FLAG -4320 3408 0
FLAG -4192 3312 SquareE
FLAG -4336 3264 TriangleE
FLAG -4048 3760 0
FLAG -4128 4144 0
FLAG -4080 3952 5VF
FLAG -3792 4064 0
FLAG -3792 3760 5VF
FLAG -4336 4032 0
FLAG -4192 3936 SquareF
FLAG -4352 3888 TriangleF
FLAG -4992 2624 0
FLAG -4944 2816 0
FLAG -4864 2576 5VD
FLAG -5168 2576 0
FLAG -5008 3232 0
FLAG -4960 3424 0
FLAG -4880 3184 5VE
FLAG -5184 3184 0
FLAG -5008 3888 0
FLAG -4960 4080 0
FLAG -4880 3840 5VF
FLAG -5184 3840 0
FLAG 6784 3328 +5V
FLAG 6784 3424 -5V
FLAG 6720 3424 0
FLAG 7072 3376 SigtoVCF
FLAG 5792 2960 0
FLAG 5792 2816 +16V
FLAG 5904 2960 0
FLAG 5904 2816 -30V
FLAG 3360 256 0
FLAG 3520 256 0
FLAG 3360 64 op+
FLAG 3520 64 op-
FLAG -1712 432 0
FLAG -1552 432 0
FLAG -976 448 0
FLAG -736 448 0
FLAG -432 448 0
FLAG -96 64 0
FLAG 192 464 0
FLAG 1216 848 0
FLAG 1648 640 egoutD
FLAG -1552 -96 v+
FLAG -976 -112 v+
FLAG -432 -112 v+
FLAG 224 -112 v+
FLAG 416 1024 v+
FLAG 1392 688 v+
FLAG 704 1344 v+
FLAG 1392 576 v-
FLAG 704 1248 v-
FLAG -1904 256 egD
FLAG 8736 864 0
FLAG 8416 880 0
FLAG 8944 2064 -15
IOPIN 8944 2064 In
FLAG 9024 2032 0
FLAG 9248 1744 0
FLAG 8576 2112 0
FLAG 8064 1648 0
FLAG 8064 2048 0
FLAG 7920 1888 +15
IOPIN 7920 1888 In
FLAG 7952 1488 CV1
FLAG 8304 1344 0
FLAG 7760 1376 0
FLAG 8384 1232 +15V
FLAG 8384 1344 -15V
FLAG 8656 1296 Audio
IOPIN 8656 1296 Out
FLAG 8592 896 LP
FLAG 9008 1664 0
FLAG 8672 1408 BP
IOPIN 8672 1408 In
FLAG 8656 1504 HP
IOPIN 8656 1504 In
FLAG 9424 1264 0
FLAG 9520 1264 0
FLAG 9760 1824 0
FLAG 9840 1840 -15V
FLAG 9840 1664 +15
IOPIN 9840 1664 In
FLAG 9616 944 +15
IOPIN 9616 944 In
FLAG 9616 1072 -15V
FLAG 8416 736 +15
IOPIN 8416 736 Out
FLAG 8400 1024 -15
IOPIN 8400 1024 Out
FLAG 8384 1200 +15
IOPIN 8384 1200 In
FLAG 8384 1376 -15
IOPIN 8384 1376 In
FLAG 7920 1488 CV1
IOPIN 7920 1488 In
FLAG 9840 1856 -15
IOPIN 9840 1856 In
FLAG 9616 1104 -15
IOPIN 9616 1104 In
FLAG 10256 912 0
FLAG 10256 720 CV1
FLAG 8576 896 LP
IOPIN 8576 896 In
FLAG 7568 1152 SigtoVCF
FLAG 8656 3088 0
FLAG 9440 3184 0
FLAG 9424 2992 TremoloOut
FLAG 8208 2976 VCFout
FLAG 8944 2976 0
FLAG 8736 3184 0
FLAG 8256 4512 0
FLAG 8464 4112 0
FLAG 8480 4304 0
FLAG 8768 4112 0
FLAG 8848 4304 0
FLAG 8896 3856 0
FLAG 9632 4224 0
FLAG 9648 3968 RightChannel
IOPIN 9648 3968 Out
FLAG 9664 4464 LeftChannel
IOPIN 9664 4464 Out
FLAG 7968 3984 TremoloOut
FLAG 9840 1696 +15V
FLAG 9616 976 +15V
FLAG 10096 1760 VCFout
FLAG 6416 3360 VCAoutputF
FLAG 6416 3264 VCAoutputD
FLAG 6416 3168 VCAoutputE
FLAG -1664 2832 0
FLAG -1504 2832 0
FLAG -928 2848 0
FLAG -688 2848 0
FLAG -384 2848 0
FLAG -48 2464 0
FLAG 240 2864 0
FLAG 1264 3248 0
FLAG 1696 3040 egoutE
FLAG -1504 2304 v+
FLAG -928 2288 v+
FLAG -384 2288 v+
FLAG 272 2288 v+
FLAG 464 3424 v+
FLAG 1440 3088 v+
FLAG 752 3744 v+
FLAG 1440 2976 v-
FLAG 752 3648 v-
FLAG -1856 2656 egE
FLAG -1632 4960 0
FLAG -1472 4960 0
FLAG -896 4976 0
FLAG -656 4976 0
FLAG -352 4976 0
FLAG -16 4592 0
FLAG 272 4992 0
FLAG 1296 5376 0
FLAG 1728 5168 egoutF
FLAG -1472 4432 v+
FLAG -896 4416 v+
FLAG -352 4416 v+
FLAG 304 4416 v+
FLAG 496 5552 v+